15

C	-1.293251 1.270970 0.000000
C	0.032066 0.824049 0.000000
C	0.294115 -0.568710 0.000000
C	-0.781038 -1.473582 0.000000
C	-2.086523 -1.025436 0.000000
C	-2.330627 0.354621 0.000000
O	1.019570 1.730158 0.000000
C	1.660600 -1.058238 0.000000
O	2.655089 -0.337865 0.000000
H	-3.352319 0.715847 0.000000
H	-0.564373 -2.536711 0.000000
H	-2.911046 -1.726097 0.000000
H	-1.480360 2.337034 0.000000
H	1.782954 -2.156428 0.000000
H	1.875980 1.242058 0.000000
